<?xml version="1.0" encoding="ISO-8859-1"?>
<febio_spec version="4.0">
	<Module type="solid"/>
	<Control>
		<analysis>STATIC</analysis>
		<time_steps>11</time_steps>
		<step_size>1</step_size>
		<solver>
			<max_refs>15</max_refs>
			<diverge_reform>1</diverge_reform>
			<reform_each_time_step>1</reform_each_time_step>
			<dtol>0</dtol>
			<etol>1e-16</etol>
			<rtol>1e-16</rtol>
			<lstol>0</lstol>
			<min_residual>1e-20</min_residual>
			<qnmethod type="BFGS">
				<max_ups>0</max_ups>
			</qnmethod>
			<symmetric_stiffness>0</symmetric_stiffness>
		</solver>
		<time_stepper>
			<dtmin>0</dtmin>
			<dtmax lc="2">1</dtmax>
			<max_retries>4</max_retries>
		</time_stepper>
	</Control>
	<Globals>
		<Constants>
			<T>0</T>
			<R>0</R>
			<Fc>0</Fc>
		</Constants>
	</Globals>
	<Material>
		<material id="1" name="Material1" type="mbe_cmm">
			<density>1</density>
			<endtime>11.0</endtime>
			<partialtime>11.0</partialtime>
			<rIo>0.6468</rIo>
			<lo>15.0</lo>
			<imper>0.00</imper>
			<hwaves>2.00</hwaves>
			<phieo>0.3400</phieo>
			<phimo>0.3300</phimo>
			<phico>0.3300</phico>
			<betat>0.0560</betat>
			<betaz>0.0670</betaz>
			<alphao>0.5220</alphao>
			<ce>89.710</ce>
			<cm1>2.614e+02</cm1>
			<cm2>2.400e-01</cm2>
			<cc1>2.349e+02</cc1>
			<cc2>4.080e+00</cc2>
			<Get>1.9000</Get>
			<Gez>1.6200</Gez>
			<Gm>1.2000</Gm>
			<Gc>1.2500</Gc>
			<Tmax>0.0</Tmax>
			<CB>0.8326</CB>
			<lamM>1.1</lamM>
			<lam0>0.4</lam0>
			<aexp>1.0000</aexp>
			<Jdep>0.9999</Jdep>
			<bulkLM>1.0e+03</bulkLM>
			<zod>2.500000</zod>
			<nuz>5.0</nuz>
			<tod>3.000000</tod>
			<nut>5.0</nut>
			<zo>7.500</zo>
			<to>1.000000</to>
			<asym>0.0</asym>
			<eta>1.0000</eta>
			<KsKi>0.0000</KsKi>
			<infl>0.00</infl>
			<KfKi>1.0000</KfKi>
			<delta>0.0000</delta>
			<insce>0.600000</insce>
			<inscc1>0.000000</inscc1>
			<insTmax>0.000000</insTmax>
			<insdelta>0.000000</insdelta>
			<insGc>0.000000</insGc>
			<agice>0.000000</agice>
			<etacen>1.0000</etacen>
			<KsKicen>0.0000</KsKicen>
		</material>
	</Material>
	<Geometry>
		<Nodes name="Object01">
			<node id="     1">  0.000000000000000,  0.646800000000000,  0.000000000000000 </node>
			<node id="     2">  0.000000000000000,  0.646800000000000,  0.187500000000000 </node>
			<node id="     3">  0.000000000000000,  0.646800000000000,  0.375000000000000 </node>
			<node id="     4">  0.000000000000000,  0.646800000000000,  0.562500000000000 </node>
			<node id="     5">  0.000000000000000,  0.646800000000000,  0.750000000000000 </node>
			<node id="     6">  0.000000000000000,  0.646800000000000,  0.937500000000000 </node>
			<node id="     7">  0.000000000000000,  0.646800000000000,  1.125000000000000 </node>
			<node id="     8">  0.000000000000000,  0.646800000000000,  1.312500000000000 </node>
			<node id="     9">  0.000000000000000,  0.646800000000000,  1.500000000000000 </node>
			<node id="    10">  0.000000000000000,  0.646800000000000,  1.687500000000000 </node>
			<node id="    11">  0.000000000000000,  0.646800000000000,  1.875000000000000 </node>
			<node id="    12">  0.000000000000000,  0.646800000000000,  2.062500000000000 </node>
			<node id="    13">  0.000000000000000,  0.646800000000000,  2.250000000000000 </node>
			<node id="    14">  0.000000000000000,  0.646800000000000,  2.437500000000000 </node>
			<node id="    15">  0.000000000000000,  0.646800000000000,  2.625000000000000 </node>
			<node id="    16">  0.000000000000000,  0.646800000000000,  2.812500000000000 </node>
			<node id="    17">  0.000000000000000,  0.646800000000000,  3.000000000000000 </node>
			<node id="    18">  0.000000000000000,  0.646800000000000,  3.187500000000000 </node>
			<node id="    19">  0.000000000000000,  0.646800000000000,  3.375000000000000 </node>
			<node id="    20">  0.000000000000000,  0.646800000000000,  3.562500000000000 </node>
<!-- ... 9700 like lines cut -->
		</Nodes>
		<Elements type="hex27" mat="1" name="Part1">
			<elem id="     1">     1,   487,   649,   163,     3,   489,   651,   165,   244,   568,   406,    82,   246,   570,   408,    84,     2,   488,   650,   164,   245,   569,   407,    83,   325,   327,   326 </elem>
			<elem id="     2">     3,   489,   651,   165,     5,   491,   653,   167,   246,   570,   408,    84,   248,   572,   410,    86,     4,   490,   652,   166,   247,   571,   409,    85,   327,   329,   328 </elem>
			<elem id="     3">     5,   491,   653,   167,     7,   493,   655,   169,   248,   572,   410,    86,   250,   574,   412,    88,     6,   492,   654,   168,   249,   573,   411,    87,   329,   331,   330 </elem>
			<elem id="     4">     7,   493,   655,   169,     9,   495,   657,   171,   250,   574,   412,    88,   252,   576,   414,    90,     8,   494,   656,   170,   251,   575,   413,    89,   331,   333,   332 </elem>
			<elem id="     5">     9,   495,   657,   171,    11,   497,   659,   173,   252,   576,   414,    90,   254,   578,   416,    92,    10,   496,   658,   172,   253,   577,   415,    91,   333,   335,   334 </elem>
			<elem id="     6">    11,   497,   659,   173,    13,   499,   661,   175,   254,   578,   416,    92,   256,   580,   418,    94,    12,   498,   660,   174,   255,   579,   417,    93,   335,   337,   336 </elem>
			<elem id="     7">    13,   499,   661,   175,    15,   501,   663,   177,   256,   580,   418,    94,   258,   582,   420,    96,    14,   500,   662,   176,   257,   581,   419,    95,   337,   339,   338 </elem>
			<elem id="     8">    15,   501,   663,   177,    17,   503,   665,   179,   258,   582,   420,    96,   260,   584,   422,    98,    16,   502,   664,   178,   259,   583,   421,    97,   339,   341,   340 </elem>
			<elem id="     9">    17,   503,   665,   179,    19,   505,   667,   181,   260,   584,   422,    98,   262,   586,   424,   100,    18,   504,   666,   180,   261,   585,   423,    99,   341,   343,   342 </elem>
			<elem id="    10">    19,   505,   667,   181,    21,   507,   669,   183,   262,   586,   424,   100,   264,   588,   426,   102,    20,   506,   668,   182,   263,   587,   425,   101,   343,   345,   344 </elem>
			<elem id="    11">    21,   507,   669,   183,    23,   509,   671,   185,   264,   588,   426,   102,   266,   590,   428,   104,    22,   508,   670,   184,   265,   589,   427,   103,   345,   347,   346 </elem>
			<elem id="    12">    23,   509,   671,   185,    25,   511,   673,   187,   266,   590,   428,   104,   268,   592,   430,   106,    24,   510,   672,   186,   267,   591,   429,   105,   347,   349,   348 </elem>
			<elem id="    13">    25,   511,   673,   187,    27,   513,   675,   189,   268,   592,   430,   106,   270,   594,   432,   108,    26,   512,   674,   188,   269,   593,   431,   107,   349,   351,   350 </elem>
			<elem id="    14">    27,   513,   675,   189,    29,   515,   677,   191,   270,   594,   432,   108,   272,   596,   434,   110,    28,   514,   676,   190,   271,   595,   433,   109,   351,   353,   352 </elem>
			<elem id="    15">    29,   515,   677,   191,    31,   517,   679,   193,   272,   596,   434,   110,   274,   598,   436,   112,    30,   516,   678,   192,   273,   597,   435,   111,   353,   355,   354 </elem>
			<elem id="    16">    31,   517,   679,   193,    33,   519,   681,   195,   274,   598,   436,   112,   276,   600,   438,   114,    32,   518,   680,   194,   275,   599,   437,   113,   355,   357,   356 </elem>
			<elem id="    17">    33,   519,   681,   195,    35,   521,   683,   197,   276,   600,   438,   114,   278,   602,   440,   116,    34,   520,   682,   196,   277,   601,   439,   115,   357,   359,   358 </elem>
			<elem id="    18">    35,   521,   683,   197,    37,   523,   685,   199,   278,   602,   440,   116,   280,   604,   442,   118,    36,   522,   684,   198,   279,   603,   441,   117,   359,   361,   360 </elem>
			<elem id="    19">    37,   523,   685,   199,    39,   525,   687,   201,   280,   604,   442,   118,   282,   606,   444,   120,    38,   524,   686,   200,   281,   605,   443,   119,   361,   363,   362 </elem>
			<elem id="    20">    39,   525,   687,   201,    41,   527,   689,   203,   282,   606,   444,   120,   284,   608,   446,   122,    40,   526,   688,   202,   283,   607,   445,   121,   363,   365,   364 </elem>
<!-- ... 780 like lines cut -->
		</Elements>
		<NodeSet name="FixedDisplacement1">
			<node id="     1"/>
			<node id="    81"/>
			<node id="  4861"/>
			<node id="  4941"/>
		</NodeSet>
		<NodeSet name="FixedDisplacement2">
			<node id="  2431"/>
			<node id="  2511"/>
			<node id="  7291"/>
			<node id="  7371"/>
		</NodeSet>
		<NodeSet name="FixedDisplacement3">
			<node id="     1"/>
			<node id="    81"/>
			<node id="    82"/>
			<node id="   162"/>
			<node id="   163"/>
			<node id="   243"/>
			<node id="   244"/>
			<node id="   324"/>
			<node id="   325"/>
			<node id="   405"/>
			<node id="   406"/>
			<node id="   486"/>
			<node id="   487"/>
			<node id="   567"/>
			<node id="   568"/>
			<node id="   648"/>
			<node id="   649"/>
			<node id="   729"/>
			<node id="   730"/>
			<node id="   810"/>
<!-- ... 220 like lines cut -->
		</NodeSet>
		<Surface name="PressureLoad1">
			<quad9 id="     1">      1,    487,    489,      3,    244,    488,    246,      2,    245 </quad9>
			<quad9 id="     2">      3,    489,    491,      5,    246,    490,    248,      4,    247 </quad9>
			<quad9 id="     3">      5,    491,    493,      7,    248,    492,    250,      6,    249 </quad9>
			<quad9 id="     4">      7,    493,    495,      9,    250,    494,    252,      8,    251 </quad9>
			<quad9 id="     5">      9,    495,    497,     11,    252,    496,    254,     10,    253 </quad9>
			<quad9 id="     6">     11,    497,    499,     13,    254,    498,    256,     12,    255 </quad9>
			<quad9 id="     7">     13,    499,    501,     15,    256,    500,    258,     14,    257 </quad9>
			<quad9 id="     8">     15,    501,    503,     17,    258,    502,    260,     16,    259 </quad9>
			<quad9 id="     9">     17,    503,    505,     19,    260,    504,    262,     18,    261 </quad9>
			<quad9 id="    10">     19,    505,    507,     21,    262,    506,    264,     20,    263 </quad9>
			<quad9 id="    11">     21,    507,    509,     23,    264,    508,    266,     22,    265 </quad9>
			<quad9 id="    12">     23,    509,    511,     25,    266,    510,    268,     24,    267 </quad9>
			<quad9 id="    13">     25,    511,    513,     27,    268,    512,    270,     26,    269 </quad9>
			<quad9 id="    14">     27,    513,    515,     29,    270,    514,    272,     28,    271 </quad9>
			<quad9 id="    15">     29,    515,    517,     31,    272,    516,    274,     30,    273 </quad9>
			<quad9 id="    16">     31,    517,    519,     33,    274,    518,    276,     32,    275 </quad9>
			<quad9 id="    17">     33,    519,    521,     35,    276,    520,    278,     34,    277 </quad9>
			<quad9 id="    18">     35,    521,    523,     37,    278,    522,    280,     36,    279 </quad9>
			<quad9 id="    19">     37,    523,    525,     39,    280,    524,    282,     38,    281 </quad9>
			<quad9 id="    20">     39,    525,    527,     41,    282,    526,    284,     40,    283 </quad9>
<!-- ... 780 like lines cut -->
		</Surface>
	</Geometry>
	<Boundary>
		<fix bc="x" node_set="FixedDisplacement1"/>
		<fix bc="y" node_set="FixedDisplacement2"/>
		<fix bc="z" node_set="FixedDisplacement3"/>
	</Boundary>
	<Loads>
		<surface_load type="pressure" surface="PressureLoad1">
			<pressure lc="1">13.9868</pressure>
			<linear>0</linear>
		</surface_load>
	</Loads>
	<LoadData>
		<loadcurve id="1" type="linear">
			<point>0.0,0.00</point>
			<point>1.0,1.00</point>
			<point>11.0,1.00</point>
		</loadcurve>
		<loadcurve id="2" type="step">
			<loadpoint>0.0,0</loadpoint>
			<loadpoint>1.0,1.0</loadpoint>
			<loadpoint>11.0,1.0</loadpoint>
		</loadcurve>
	</LoadData>
	<Output>
		<plotfile type="vtk">
			<var type="density"/>
			<var type="displacement"/>
			<var type="SPR stress"/>
			<var type="stress"/>
			<var type="relative volume=relative_volume"/>
			<var type="acceleration=sed_Ctttt_Czzzz"/>
			<var type="velocity=phie_phim_phic"/>
		</plotfile>
		<logfile>
			<node_data data="ux;uy;uz;x;y;z" name="Nodal displacement and current position"/>
		</logfile>
	</Output>
</febio_spec>
