<?xml version="1.0" encoding="ISO-8859-1"?>
<febio_spec version="4.0">
    <Module type="solid"/>
    <Control>
    	<analysis>STATIC</analysis>
        <time_steps>11</time_steps>
        <step_size>1</step_size>
	    <solver>
	        <max_refs>15</max_refs>
	        <diverge_reform>1</diverge_reform>
	        <reform_each_time_step>1</reform_each_time_step>
	        <dtol>0</dtol>
	        <etol>1e-16</etol>
	        <rtol>1e-16</rtol>
	        <lstol>0</lstol>
	        <min_residual>1e-020</min_residual>
		      <qn_method type="BFGS">
		        <max_ups>0</max_ups>
		      </qn_method>
	        <symmetric_stiffness>0</symmetric_stiffness>
	    </solver>
		<time_stepper>
			<dtmin>0</dtmin>
			<dtmax lc="2">1</dtmax>
			<max_retries>4</max_retries>
		</time_stepper>
    </Control>
    <Globals>
        <Constants>
            <T>0</T>
            <R>0</R>
            <Fc>0</Fc>
        </Constants>
    </Globals>
    <Material>
        <material id="1" name="Material1" type="mbe_cmm">
            <density>1</density>
        </material>
    </Material>
	<Mesh>
		<Nodes name="Object01">
			<node id="1"> 6.4680000e-001, 0.0000000e+000, 0.0000000e+000</node>
			<node id="2"> 6.5685000e-001, 0.0000000e+000, 0.0000000e+000</node>
			<node id="3"> 6.6690000e-001, 0.0000000e+000, 0.0000000e+000</node>
			<node id="4"> 6.7695000e-001, 0.0000000e+000, 0.0000000e+000</node>
			<node id="5"> 6.8700000e-001, 0.0000000e+000, 0.0000000e+000</node>
			<node id="6"> 6.4648084e-001, 2.0316479e-002, 0.0000000e+000</node>
			<node id="7"> 6.5652588e-001, 2.0632157e-002, 0.0000000e+000</node>
			<node id="8"> 6.6657093e-001, 2.0947835e-002, 0.0000000e+000</node>
			<node id="9"> 6.7661597e-001, 2.1263513e-002, 0.0000000e+000</node>
			<node id="10"> 6.8666101e-001, 2.1579191e-002, 0.0000000e+000</node>
			<node id="11"> 6.4552369e-001, 4.0612907e-002, 0.0000000e+000</node>
			<node id="12"> 6.5555386e-001, 4.1243952e-002, 0.0000000e+000</node>
			<node id="13"> 6.6558403e-001, 4.1874997e-002, 0.0000000e+000</node>
			<node id="14"> 6.7561419e-001, 4.2506041e-002, 0.0000000e+000</node>
			<node id="15"> 6.8564436e-001, 4.3137086e-002, 0.0000000e+000</node>
			<node id="16"> 6.4392948e-001, 6.0869256e-002, 0.0000000e+000</node>
			<node id="17"> 6.5393488e-001, 6.1815045e-002, 0.0000000e+000</node>
			<node id="18"> 6.6394027e-001, 6.2760833e-002, 0.0000000e+000</node>
			<node id="19"> 6.7394567e-001, 6.3706622e-002, 0.0000000e+000</node>
			<node id="20"> 6.8395107e-001, 6.4652410e-002, 0.0000000e+000</node>
<!-- ... 1980 like lines cut -->
		</Nodes>
		<Elements type="hex8" mat="1" name="Part1">
			<elem id="1">     1,     2,     7,     6,  1001,  1002,  1007,  1006</elem>
			<elem id="2">     2,     3,     8,     7,  1002,  1003,  1008,  1007</elem>
			<elem id="3">     3,     4,     9,     8,  1003,  1004,  1009,  1008</elem>
			<elem id="4">     4,     5,    10,     9,  1004,  1005,  1010,  1009</elem>
			<elem id="5">     6,     7,    12,    11,  1006,  1007,  1012,  1011</elem>
			<elem id="6">     7,     8,    13,    12,  1007,  1008,  1013,  1012</elem>
			<elem id="7">     8,     9,    14,    13,  1008,  1009,  1014,  1013</elem>
			<elem id="8">     9,    10,    15,    14,  1009,  1010,  1015,  1014</elem>
			<elem id="9">    11,    12,    17,    16,  1011,  1012,  1017,  1016</elem>
			<elem id="10">    12,    13,    18,    17,  1012,  1013,  1018,  1017</elem>
			<elem id="11">    13,    14,    19,    18,  1013,  1014,  1019,  1018</elem>
			<elem id="12">    14,    15,    20,    19,  1014,  1015,  1020,  1019</elem>
			<elem id="13">    16,    17,    22,    21,  1016,  1017,  1022,  1021</elem>
			<elem id="14">    17,    18,    23,    22,  1017,  1018,  1023,  1022</elem>
			<elem id="15">    18,    19,    24,    23,  1018,  1019,  1024,  1023</elem>
			<elem id="16">    19,    20,    25,    24,  1019,  1020,  1025,  1024</elem>
			<elem id="17">    21,    22,    27,    26,  1021,  1022,  1027,  1026</elem>
			<elem id="18">    22,    23,    28,    27,  1022,  1023,  1028,  1027</elem>
			<elem id="19">    23,    24,    29,    28,  1023,  1024,  1029,  1028</elem>
			<elem id="20">    24,    25,    30,    29,  1024,  1025,  1030,  1029</elem>
<!-- ... 780 like lines cut -->
		</Elements>
		<NodeSet name="FixedDisplacement1">
			251, 751, 1251, 1751
		</NodeSet>
		<NodeSet name="FixedDisplacement2">
			1, 501, 1001, 1501
		</NodeSet>
		<NodeSet name="FixedDisplacement3">
			1, 2, 3, 4, 5, 6, 7, 8, 9, 10, 11, 12, 13, 14, 15, 16, 17, 18, 19, 20, 21, 22, 23, 24, 25, 26, 27, 28, 29, 30, 31, 32, 33, 34, 35, 36, 37, 38, 39, 40, 41, 42, 43, 44, 45, 46, 47, 48, 49, 50, 51, 52, 53, 54, 55, 56, 57, 58, 59, 60, 61, 62, 63, 64, 65, 66, 67, 68, 69, 70, 71, 72, 73, 74, 75, 76, 77, 78, 79, 80, 81, 82, 83, 84, 85, 86, 87, 88, 89, 90, 91, 92, 93, 94, 95, 96, 97, 98, 99, 100, 101, 
		</NodeSet>
		<Surface name="PressureLoad1">
			<quad4 id="1">     6,     1,  1001,  1006</quad4>
			<quad4 id="2">    11,     6,  1006,  1011</quad4>
			<quad4 id="3">    16,    11,  1011,  1016</quad4>
			<quad4 id="4">    21,    16,  1016,  1021</quad4>
			<quad4 id="5">    26,    21,  1021,  1026</quad4>
			<quad4 id="6">    31,    26,  1026,  1031</quad4>
			<quad4 id="7">    36,    31,  1031,  1036</quad4>
			<quad4 id="8">    41,    36,  1036,  1041</quad4>
			<quad4 id="9">    46,    41,  1041,  1046</quad4>
			<quad4 id="10">    51,    46,  1046,  1051</quad4>
			<quad4 id="11">    56,    51,  1051,  1056</quad4>
			<quad4 id="12">    61,    56,  1056,  1061</quad4>
			<quad4 id="13">    66,    61,  1061,  1066</quad4>
			<quad4 id="14">    71,    66,  1066,  1071</quad4>
			<quad4 id="15">    76,    71,  1071,  1076</quad4>
			<quad4 id="16">    81,    76,  1076,  1081</quad4>
			<quad4 id="17">    86,    81,  1081,  1086</quad4>
			<quad4 id="18">    91,    86,  1086,  1091</quad4>
			<quad4 id="19">    96,    91,  1091,  1096</quad4>
			<quad4 id="20">   101,    96,  1096,  1101</quad4>
<!-- ... 180 like lines cut -->
		</Surface>
	</Mesh>
	<MeshDomains>
	    <SolidDomain name="Part1" mat="Material1">
	    </SolidDomain>
 	</MeshDomains>
	<Boundary>
	    <bc name="FixedDisplacement1" type="zero displacement" node_set="FixedDisplacement1">
	      <x_dof>1</x_dof>
	      <y_dof>0</y_dof>
	      <z_dof>0</z_dof>
	    </bc>
	    <bc name="FixedDisplacement2" type="zero displacement" node_set="FixedDisplacement2">
	      <x_dof>0</x_dof>
	      <y_dof>1</y_dof>
	      <z_dof>0</z_dof>
	    </bc>
	    <bc name="FixedDisplacement3" type="zero displacement" node_set="FixedDisplacement3">
	      <x_dof>0</x_dof>
	      <y_dof>0</y_dof>
	      <z_dof>1</z_dof>
	    </bc>
	</Boundary>
    <Loads>
        <surface_load type="pressure" surface="PressureLoad1">
            <pressure lc="1">13.9868</pressure>
            <linear>0</linear>
<!--
            <pressure_stiffness>1</pressure_stiffness>
            <symmetric_stiffness>0</symmetric_stiffness>
-->
        </surface_load>
    </Loads>
    <LoadData>
	    <load_controller id="1" type="loadcurve">
	      <interpolate>LINEAR</interpolate>
	      <points>
            <point>0,0</point>
            <point>1,1</point>
            <point>11,1.5</point>
	      </points>
	    </load_controller>
	    <load_controller id="2" type="loadcurve">
	      <interpolate>STEP</interpolate>
	      <points>
			<loadpoint>0,0</loadpoint>
			<loadpoint>1,1</loadpoint>
			<loadpoint>11,1</loadpoint>
	      </points>
	    </load_controller>
    </LoadData>
    <Output>
        <plotfile type="vtk">
            <var type="displacement"/>
            <var type="relative volume"/>
            <var type="stress"/>
			<var type="SPR stress"/>
			<var type="Lagrange strain"/>
			<var type="SPR principal stress"/>
            <var type="strain energy density"/>
            <var type="acceleration"/>
			<var type="velocity"/>
        </plotfile>
    </Output>
</febio_spec>
