<?xml version='1.0' encoding='utf-8'?>
<febio_spec version="4.0">
  <Module type="solid" />
  <Control>
    <analysis>STATIC</analysis>
    <time_steps>11</time_steps>
    <step_size>1</step_size>
    <solver>
      <diverge_reform>1</diverge_reform>
      <reform_each_time_step>1</reform_each_time_step>
      <dtol>0</dtol>
      <etol>1e-16</etol>
      <rtol>1e-16</rtol>
      <lstol>0.0</lstol>
      <min_residual>1e-16</min_residual>
      <rhoi>0</rhoi>
      <linear_solver type="mkl_dss" />
      <max_refs>1000</max_refs>
      <qn_method type="BFGS">
        <max_ups>0</max_ups>
      </qn_method>
      <symmetric_stiffness>0</symmetric_stiffness>
    </solver>
  </Control>
  <Globals>
    <Constants>
      <T>0</T>
      <R>0</R>
      <Fc>0</Fc>
    </Constants>
  </Globals>
  <Material>
    <material id="1" name="Material1" type="mbe_cmm">
      <density>1</density>
    </material>
  </Material>
  <Mesh><Nodes name="Object01">
		<node id="1">0.6468, 0.0, -0.0201</node>
		<node id="2">0.6669, 0.0, -0.0201</node>
		<node id="3">0.687, 0.0, -0.0201</node>
		<node id="4">0.6388368186969352, 0.10118181198802133, -0.0201</node>
		<node id="5">0.6586893543428974, 0.10432614473532997, -0.0201</node>
		<node id="6">0.6785418899888597, 0.10747047748263862, -0.0201</node>
		<node id="7">0.6151433547397054, 0.199872191961716, -0.0201</node>
		<node id="8">0.6342595907172379, 0.20608343354865244, -0.0201</node>
		<node id="9">0.6533758266947706, 0.2122946751355889, -0.0201</node>
		<node id="10">0.5763030198450364, 0.2936410552315389, -0.0201</node>
		<node id="11">0.5942122509812225, 0.30276626427630376, -0.0201</node>
		<node id="12">0.6121214821174088, 0.31189147332106865, -0.0201</node>
		<node id="13">0.523272191961716, 0.38017950118277166, -0.0201</node>
		<node id="14">0.5395334335486525, 0.3919939847538504, -0.0201</node>
		<node id="15">0.5557946751355889, 0.40380846832492906, -0.0201</node>
		<node id="16">0.457356666071459, 0.4573566660714589, -0.0201</node>
		<node id="17">0.47156951237330863, 0.4715695123733085, -0.0201</node>
		<node id="18">0.48578235867515823, 0.4857823586751581, -0.0201</node>
		<node id="19">0.38017950118277166, 0.523272191961716, -0.0201</node>
		<node id="20">0.3919939847538504, 0.5395334335486525, -0.0201</node>
<!-- ... 79 like lines cut -->
	</Nodes><Elements type="hex27" mat="1" name="Part1">
		<elem id="1">1, 7, 73, 67, 3, 9, 75, 69, 4, 40, 70, 34, 6, 42, 72, 36, 2, 8, 74, 68, 5, 41, 71, 35, 37, 39, 38</elem>
		<elem id="2">7, 13, 79, 73, 9, 15, 81, 75, 10, 46, 76, 40, 12, 48, 78, 42, 8, 14, 80, 74, 11, 47, 77, 41, 43, 45, 44</elem>
		<elem id="3">13, 19, 85, 79, 15, 21, 87, 81, 16, 52, 82, 46, 18, 54, 84, 48, 14, 20, 86, 80, 17, 53, 83, 47, 49, 51, 50</elem>
		<elem id="4">19, 25, 91, 85, 21, 27, 93, 87, 22, 58, 88, 52, 24, 60, 90, 54, 20, 26, 92, 86, 23, 59, 89, 53, 55, 57, 56</elem>
		<elem id="5">25, 31, 97, 91, 27, 33, 99, 93, 28, 64, 94, 58, 30, 66, 96, 60, 26, 32, 98, 92, 29, 65, 95, 59, 61, 63, 62</elem>
	</Elements><NodeSet name="FixXs">
		31, 32, 33, 64, 65, 66, 97, 98, 99
	</NodeSet><NodeSet name="FixYs">
		1, 2, 3, 34, 35, 36, 67, 68, 69
	</NodeSet><Surface name="FixZs">
		<quad9 id="1">1, 3, 9, 7, 2, 6, 8, 4, 5</quad9>
		<quad9 id="2">67, 69, 75, 73, 68, 72, 74, 70, 71</quad9>
		<quad9 id="3">7, 9, 15, 13, 8, 12, 14, 10, 11</quad9>
		<quad9 id="4">73, 75, 81, 79, 74, 78, 80, 76, 77</quad9>
		<quad9 id="5">13, 15, 21, 19, 14, 18, 20, 16, 17</quad9>
		<quad9 id="6">79, 81, 87, 85, 80, 84, 86, 82, 83</quad9>
		<quad9 id="7">19, 21, 27, 25, 20, 24, 26, 22, 23</quad9>
		<quad9 id="8">85, 87, 93, 91, 86, 90, 92, 88, 89</quad9>
		<quad9 id="9">25, 27, 33, 31, 26, 30, 32, 28, 29</quad9>
		<quad9 id="10">91, 93, 99, 97, 92, 96, 98, 94, 95</quad9>
	</Surface><Surface name="PressureLoad1">
		<quad9 id="1">1, 67, 73, 7, 34, 70, 40, 4, 37</quad9>
		<quad9 id="2">7, 73, 79, 13, 40, 76, 46, 10, 43</quad9>
		<quad9 id="3">13, 79, 85, 19, 46, 82, 52, 16, 49</quad9>
		<quad9 id="4">19, 85, 91, 25, 52, 88, 58, 22, 55</quad9>
		<quad9 id="5">25, 91, 97, 31, 58, 94, 64, 28, 61</quad9>
	</Surface></Mesh><MeshDomains>
    <SolidDomain name="Part1" mat="Material1">
    </SolidDomain>
  </MeshDomains>
  <Boundary>
    <bc name="FixYs" type="zero displacement" node_set="FixYs">
      <x_dof>0</x_dof>
      <y_dof>1</y_dof>
      <z_dof>0</z_dof>
    </bc>
    <bc name="FixZs" type="zero displacement" node_set="@surface:FixZs">
      <x_dof>0</x_dof>
      <y_dof>0</y_dof>
      <z_dof>1</z_dof>
    </bc>
    <bc name="FixXs" type="zero displacement" node_set="FixXs">
      <x_dof>1</x_dof>
      <y_dof>0</y_dof>
      <z_dof>0</z_dof>
    </bc>
  </Boundary>
  <Loads>
    <surface_load type="pressure" surface="PressureLoad1">
      <pressure lc="1">13.9868</pressure>
      <linear>0</linear>
      <symmetric_stiffness>0</symmetric_stiffness>
    </surface_load>
  </Loads>
  <LoadData>
    <load_controller id="1" type="loadcurve">
      <interpolate>LINEAR</interpolate>
      <points>
        <point>0,1.0</point>
        <point>1,1.0</point>
        <point>11,1.4</point>
      </points>
    </load_controller>
  </LoadData>
  <Output>
    <plotfile type="vtk">
      <var type="displacement" />
      <var type="relative volume" />
      <var type="stress" />
      <var type="SPR stress" />
      <var type="Lagrange strain" />
      <var type="SPR principal stress" />
      <var type="strain energy density" />
      <var type="acceleration" />
      <var type="velocity" />
    </plotfile>
  </Output>
</febio_spec>
