<?xml version='1.0' encoding='utf-8'?>
<febio_spec version="4.0">
  <Module type="solid" />
  <Control>
    <analysis>STATIC</analysis>
    <time_steps>5</time_steps>
    <step_size>1</step_size>
    <solver>
      <max_refs>15</max_refs>
      <diverge_reform>1</diverge_reform>
      <reform_each_time_step>1</reform_each_time_step>
      <dtol>0</dtol>
      <etol>1e-16</etol>
      <rtol>1e-16</rtol>
      <lstol>0</lstol>
      <min_residual>1e-16</min_residual>
      <qn_method type="BFGS">
        <max_ups>0</max_ups>
      </qn_method>
      <symmetric_stiffness>0</symmetric_stiffness>
    </solver>
  </Control>
  <Globals>
    <Constants>
      <T>0</T>
      <R>0</R>
      <Fc>0</Fc>
    </Constants>
  </Globals>
  <Material>
    <material id="1" name="Material1" type="mbe_cmm">
      <density>1</density>
      <elastin_injury_val lc="2" type="math">exp(-abs((Z - 0.0) / 3.0) ^ 5.0)</elastin_injury_val>
    </material>
  </Material>
  <Mesh>
    <Nodes name="Object01">
      <node id="1">0.6468, 0.0, -7.5</node>
      <node id="2">0.6669, 0.0, -7.5</node>
      <node id="3">0.687, 0.0, -7.5</node>
      <node id="4">0.6448061314585872, 0.050747343116770115, -7.5</node>
      <node id="5">0.6648441698666231, 0.0523243709408998, -7.5</node>
      <node id="6">0.684882208274659, 0.05390139876502948, -7.5</node>
      <node id="7">0.6388368186969352, 0.10118181198802133, -7.5</node>
      <node id="8">0.6586893543428974, 0.10432614473532997, -7.5</node>
      <node id="9">0.6785418899888597, 0.10747047748263862, -7.5</node>
      <node id="10">0.6289288645132173, 0.15099246134199962, -7.5</node>
      <node id="11">0.6484734999132106, 0.1556847131555033, -7.5</node>
      <node id="12">0.6680181353132039, 0.16037696496900702, -7.5</node>
      <node id="13">0.6151433547397054, 0.199872191961716, -7.5</node>
      <node id="14">0.6342595907172379, 0.20608343354865244, -7.5</node>
      <node id="15">0.6533758266947706, 0.2122946751355889, -7.5</node>
      <node id="16">0.5975652816283002, 0.24751964405374008, -7.5</node>
      <node id="17">0.6161352602317771, 0.2552115810442784, -7.5</node>
      <node id="18">0.6347052388352541, 0.2629035180348167, -7.5</node>
      <node id="19">0.5763030198450364, 0.2936410552315389, -7.5</node>
      <node id="20">0.5942122509812225, 0.30276626427630376, -7.5</node>
<!-- ... 10123 like lines cut -->
    </Nodes>
    <Elements type="hex27" mat="1" name="Part1">
      <elem id="1">1, 7, 133, 127, 3, 9, 135, 129, 4, 70, 130, 64, 6, 72, 132, 66, 2, 8, 134, 128, 5, 71, 131, 65, 67, 69, 68</elem>
      <elem id="2">7, 13, 139, 133, 9, 15, 141, 135, 10, 76, 136, 70, 12, 78, 138, 72, 8, 14, 140, 134, 11, 77, 137, 71, 73, 75, 74</elem>
      <elem id="3">13, 19, 145, 139, 15, 21, 147, 141, 16, 82, 142, 76, 18, 84, 144, 78, 14, 20, 146, 140, 17, 83, 143, 77, 79, 81, 80</elem>
      <elem id="4">19, 25, 151, 145, 21, 27, 153, 147, 22, 88, 148, 82, 24, 90, 150, 84, 20, 26, 152, 146, 23, 89, 149, 83, 85, 87, 86</elem>
      <elem id="5">25, 31, 157, 151, 27, 33, 159, 153, 28, 94, 154, 88, 30, 96, 156, 90, 26, 32, 158, 152, 29, 95, 155, 89, 91, 93, 92</elem>
      <elem id="6">31, 37, 163, 157, 33, 39, 165, 159, 34, 100, 160, 94, 36, 102, 162, 96, 32, 38, 164, 158, 35, 101, 161, 95, 97, 99, 98</elem>
      <elem id="7">37, 43, 169, 163, 39, 45, 171, 165, 40, 106, 166, 100, 42, 108, 168, 102, 38, 44, 170, 164, 41, 107, 167, 101, 103, 105, 104</elem>
      <elem id="8">43, 49, 175, 169, 45, 51, 177, 171, 46, 112, 172, 106, 48, 114, 174, 108, 44, 50, 176, 170, 47, 113, 173, 107, 109, 111, 110</elem>
      <elem id="9">49, 55, 181, 175, 51, 57, 183, 177, 52, 118, 178, 112, 54, 120, 180, 114, 50, 56, 182, 176, 53, 119, 179, 113, 115, 117, 116</elem>
      <elem id="10">55, 61, 187, 181, 57, 63, 189, 183, 58, 124, 184, 118, 60, 126, 186, 120, 56, 62, 188, 182, 59, 125, 185, 119, 121, 123, 122</elem>
      <elem id="11">127, 133, 259, 253, 129, 135, 261, 255, 130, 196, 256, 190, 132, 198, 258, 192, 128, 134, 260, 254, 131, 197, 257, 191, 193, 195, 194</elem>
      <elem id="12">133, 139, 265, 259, 135, 141, 267, 261, 136, 202, 262, 196, 138, 204, 264, 198, 134, 140, 266, 260, 137, 203, 263, 197, 199, 201, 200</elem>
      <elem id="13">139, 145, 271, 265, 141, 147, 273, 267, 142, 208, 268, 202, 144, 210, 270, 204, 140, 146, 272, 266, 143, 209, 269, 203, 205, 207, 206</elem>
      <elem id="14">145, 151, 277, 271, 147, 153, 279, 273, 148, 214, 274, 208, 150, 216, 276, 210, 146, 152, 278, 272, 149, 215, 275, 209, 211, 213, 212</elem>
      <elem id="15">151, 157, 283, 277, 153, 159, 285, 279, 154, 220, 280, 214, 156, 222, 282, 216, 152, 158, 284, 278, 155, 221, 281, 215, 217, 219, 218</elem>
      <elem id="16">157, 163, 289, 283, 159, 165, 291, 285, 160, 226, 286, 220, 162, 228, 288, 222, 158, 164, 290, 284, 161, 227, 287, 221, 223, 225, 224</elem>
      <elem id="17">163, 169, 295, 289, 165, 171, 297, 291, 166, 232, 292, 226, 168, 234, 294, 228, 164, 170, 296, 290, 167, 233, 293, 227, 229, 231, 230</elem>
      <elem id="18">169, 175, 301, 295, 171, 177, 303, 297, 172, 238, 298, 232, 174, 240, 300, 234, 170, 176, 302, 296, 173, 239, 299, 233, 235, 237, 236</elem>
      <elem id="19">175, 181, 307, 301, 177, 183, 309, 303, 178, 244, 304, 238, 180, 246, 306, 240, 176, 182, 308, 302, 179, 245, 305, 239, 241, 243, 242</elem>
      <elem id="20">181, 187, 313, 307, 183, 189, 315, 309, 184, 250, 310, 244, 186, 252, 312, 246, 182, 188, 314, 308, 185, 251, 311, 245, 247, 249, 248</elem>
<!-- ... 780 like lines cut -->
    </Elements>
    <NodeSet name="FixXs">
		61, 62, 63, 124, 125, 126, 187, 188, 189, 250, 251, 252, 313, 314, 315, 376, 377, 378, 439, 440, 441, 502, 503, 504, 565, 566, 567, 628, 629, 630, 691, 692, 693, 754, 755, 756, 817, 818, 819, 880, 881, 882, 943, 944, 945, 1006, 1007, 1008, 1069, 1070, 1071, 1132, 1133, 1134, 1195, 1196, 1197, 1258, 1259, 1260, 1321, 1322, 1323, 1384, 1385, 1386, 1447, 1448, 1449, 1510, 1511, 1512, 1573, 1574, 15
	</NodeSet>
    <NodeSet name="FixYs">
		1, 2, 3, 64, 65, 66, 127, 128, 129, 190, 191, 192, 253, 254, 255, 316, 317, 318, 379, 380, 381, 442, 443, 444, 505, 506, 507, 568, 569, 570, 631, 632, 633, 694, 695, 696, 757, 758, 759, 820, 821, 822, 883, 884, 885, 946, 947, 948, 1009, 1010, 1011, 1072, 1073, 1074, 1135, 1136, 1137, 1198, 1199, 1200, 1261, 1262, 1263, 1324, 1325, 1326, 1387, 1388, 1389, 1450, 1451, 1452, 1513, 1514, 1515, 1576,
	</NodeSet>
    <Surface name="FixZs">
      <quad9 id="1">1, 3, 9, 7, 2, 6, 8, 4, 5</quad9>
      <quad9 id="2">7, 9, 15, 13, 8, 12, 14, 10, 11</quad9>
      <quad9 id="3">13, 15, 21, 19, 14, 18, 20, 16, 17</quad9>
      <quad9 id="4">19, 21, 27, 25, 20, 24, 26, 22, 23</quad9>
      <quad9 id="5">25, 27, 33, 31, 26, 30, 32, 28, 29</quad9>
      <quad9 id="6">31, 33, 39, 37, 32, 36, 38, 34, 35</quad9>
      <quad9 id="7">37, 39, 45, 43, 38, 42, 44, 40, 41</quad9>
      <quad9 id="8">43, 45, 51, 49, 44, 48, 50, 46, 47</quad9>
      <quad9 id="9">49, 51, 57, 55, 50, 54, 56, 52, 53</quad9>
      <quad9 id="10">55, 57, 63, 61, 56, 60, 62, 58, 59</quad9>
      <quad9 id="11">10081, 10083, 10089, 10087, 10082, 10086, 10088, 10084, 10085</quad9>
      <quad9 id="12">10087, 10089, 10095, 10093, 10088, 10092, 10094, 10090, 10091</quad9>
      <quad9 id="13">10093, 10095, 10101, 10099, 10094, 10098, 10100, 10096, 10097</quad9>
      <quad9 id="14">10099, 10101, 10107, 10105, 10100, 10104, 10106, 10102, 10103</quad9>
      <quad9 id="15">10105, 10107, 10113, 10111, 10106, 10110, 10112, 10108, 10109</quad9>
      <quad9 id="16">10111, 10113, 10119, 10117, 10112, 10116, 10118, 10114, 10115</quad9>
      <quad9 id="17">10117, 10119, 10125, 10123, 10118, 10122, 10124, 10120, 10121</quad9>
      <quad9 id="18">10123, 10125, 10131, 10129, 10124, 10128, 10130, 10126, 10127</quad9>
      <quad9 id="19">10129, 10131, 10137, 10135, 10130, 10134, 10136, 10132, 10133</quad9>
      <quad9 id="20">10135, 10137, 10143, 10141, 10136, 10140, 10142, 10138, 10139</quad9>
    </Surface>
    <Surface name="PressureLoad1">
      <quad9 id="1">1, 127, 133, 7, 64, 130, 70, 4, 67</quad9>
      <quad9 id="2">7, 133, 139, 13, 70, 136, 76, 10, 73</quad9>
      <quad9 id="3">13, 139, 145, 19, 76, 142, 82, 16, 79</quad9>
      <quad9 id="4">19, 145, 151, 25, 82, 148, 88, 22, 85</quad9>
      <quad9 id="5">25, 151, 157, 31, 88, 154, 94, 28, 91</quad9>
      <quad9 id="6">31, 157, 163, 37, 94, 160, 100, 34, 97</quad9>
      <quad9 id="7">37, 163, 169, 43, 100, 166, 106, 40, 103</quad9>
      <quad9 id="8">43, 169, 175, 49, 106, 172, 112, 46, 109</quad9>
      <quad9 id="9">49, 175, 181, 55, 112, 178, 118, 52, 115</quad9>
      <quad9 id="10">55, 181, 187, 61, 118, 184, 124, 58, 121</quad9>
      <quad9 id="11">127, 253, 259, 133, 190, 256, 196, 130, 193</quad9>
      <quad9 id="12">133, 259, 265, 139, 196, 262, 202, 136, 199</quad9>
      <quad9 id="13">139, 265, 271, 145, 202, 268, 208, 142, 205</quad9>
      <quad9 id="14">145, 271, 277, 151, 208, 274, 214, 148, 211</quad9>
      <quad9 id="15">151, 277, 283, 157, 214, 280, 220, 154, 217</quad9>
      <quad9 id="16">157, 283, 289, 163, 220, 286, 226, 160, 223</quad9>
      <quad9 id="17">163, 289, 295, 169, 226, 292, 232, 166, 229</quad9>
      <quad9 id="18">169, 295, 301, 175, 232, 298, 238, 172, 235</quad9>
      <quad9 id="19">175, 301, 307, 181, 238, 304, 244, 178, 241</quad9>
      <quad9 id="20">181, 307, 313, 187, 244, 310, 250, 184, 247</quad9>
<!-- ... 780 like lines cut -->
    </Surface>
  </Mesh>
  <MeshDomains>
    <SolidDomain name="Part1" mat="Material1">
    </SolidDomain>
  </MeshDomains>
  <Boundary>
    <bc name="FixXs" type="zero displacement" node_set="FixXs">
      <x_dof>1</x_dof>
      <y_dof>0</y_dof>
      <z_dof>0</z_dof>
    </bc>
    <bc name="FixYs" type="zero displacement" node_set="FixYs">
      <x_dof>0</x_dof>
      <y_dof>1</y_dof>
      <z_dof>0</z_dof>
    </bc>
    <bc name="FixZs" type="zero displacement" node_set="@surface:FixZs">
      <x_dof>0</x_dof>
      <y_dof>0</y_dof>
      <z_dof>1</z_dof>
    </bc>
  </Boundary>
  <Loads>
    <surface_load type="pressure" surface="PressureLoad1">
      <pressure lc="1">13.9868</pressure>
      <linear>0</linear>
      <symmetric_stiffness>0</symmetric_stiffness>
    </surface_load>
  </Loads>
  <LoadData>
    <load_controller id="1" type="loadcurve">
      <interpolate>LINEAR</interpolate>
      <points>
        <point>0,1.0</point>
        <point>1,1.0</point>
      </points>
    </load_controller>
    <load_controller id="2" type="loadcurve">
      <interpolate>LINEAR</interpolate>
      <points>
        <loadpoint>0,0</loadpoint>
        <loadpoint>1,0.0</loadpoint>
        <loadpoint>2,0.0</loadpoint>
        <loadpoint>5,0.36</loadpoint>
      </points>
    </load_controller>
  </LoadData>
  <Output>
    <plotfile type="vtk">
      <var type="displacement" />
      <var type="relative volume" />
      <var type="stress" />
      <var type="SPR stress" />
      <var type="SPR principal stress" />
      <var type="deformation gradient" />
      <var type="strain energy density" />
      <var type="acceleration" />
      <var type="velocity" />
    </plotfile>
  </Output>
</febio_spec>