<?xml version='1.0' encoding='utf-8'?>
<febio_spec version="4.0">
  <Module type="solid" />
  <Control>
    <analysis>STATIC</analysis>
    <time_steps>11</time_steps>
    <step_size>1</step_size>
    <solver>
      <max_refs>15</max_refs>
      <diverge_reform>1</diverge_reform>
      <reform_each_time_step>1</reform_each_time_step>
      <dtol>0</dtol>
      <etol>1e-16</etol>
      <rtol>1e-16</rtol>
      <lstol>0</lstol>
      <min_residual>1e-16</min_residual>
      <qn_method type="BFGS">
        <max_ups>0</max_ups>
      </qn_method>
      <symmetric_stiffness>0</symmetric_stiffness>
    </solver>
  </Control>
  <Globals>
    <Constants>
      <T>0</T>
      <R>0</R>
      <Fc>0</Fc>
    </Constants>
  </Globals>
  <Material>
    <material id="1" name="Material1" type="mbe_cmm">
      <density>1</density>
      <elastin_injury_val lc="2" type="math">exp(-abs((Z - 0.0) / 3.0) ^ 5.0)</elastin_injury_val>
    </material>
  </Material>
  <Mesh>
    <Nodes name="Object01">
      <node id="1">0.6468, 0.0, -0.0201</node>
      <node id="2">0.6669, 0.0, -0.0201</node>
      <node id="3">0.687, 0.0, -0.0201</node>
      <node id="4">0.6388368186969352, 0.10118181198802133, -0.0201</node>
      <node id="5">0.6586893543428974, 0.10432614473532997, -0.0201</node>
      <node id="6">0.6785418899888597, 0.10747047748263862, -0.0201</node>
      <node id="7">0.6151433547397054, 0.199872191961716, -0.0201</node>
      <node id="8">0.6342595907172379, 0.20608343354865244, -0.0201</node>
      <node id="9">0.6533758266947706, 0.2122946751355889, -0.0201</node>
      <node id="10">0.5763030198450364, 0.2936410552315389, -0.0201</node>
      <node id="11">0.5942122509812225, 0.30276626427630376, -0.0201</node>
      <node id="12">0.6121214821174088, 0.31189147332106865, -0.0201</node>
      <node id="13">0.523272191961716, 0.38017950118277166, -0.0201</node>
      <node id="14">0.5395334335486525, 0.3919939847538504, -0.0201</node>
      <node id="15">0.5557946751355889, 0.40380846832492906, -0.0201</node>
      <node id="16">0.457356666071459, 0.4573566660714589, -0.0201</node>
      <node id="17">0.47156951237330863, 0.4715695123733085, -0.0201</node>
      <node id="18">0.48578235867515823, 0.4857823586751581, -0.0201</node>
      <node id="19">0.38017950118277166, 0.523272191961716, -0.0201</node>
      <node id="20">0.3919939847538504, 0.5395334335486525, -0.0201</node>
<!-- ... 340 like lines cut -->
    </Nodes>
    <Elements type="hex27" mat="1" name="Part1">
      <elem id="1">1, 7, 247, 241, 3, 9, 249, 243, 4, 127, 244, 121, 6, 129, 246, 123, 2, 8, 248, 242, 5, 128, 245, 122, 124, 126, 125</elem>
      <elem id="2">7, 13, 253, 247, 9, 15, 255, 249, 10, 133, 250, 127, 12, 135, 252, 129, 8, 14, 254, 248, 11, 134, 251, 128, 130, 132, 131</elem>
      <elem id="3">13, 19, 259, 253, 15, 21, 261, 255, 16, 139, 256, 133, 18, 141, 258, 135, 14, 20, 260, 254, 17, 140, 257, 134, 136, 138, 137</elem>
      <elem id="4">19, 25, 265, 259, 21, 27, 267, 261, 22, 145, 262, 139, 24, 147, 264, 141, 20, 26, 266, 260, 23, 146, 263, 140, 142, 144, 143</elem>
      <elem id="5">25, 31, 271, 265, 27, 33, 273, 267, 28, 151, 268, 145, 30, 153, 270, 147, 26, 32, 272, 266, 29, 152, 269, 146, 148, 150, 149</elem>
      <elem id="6">31, 37, 277, 271, 33, 39, 279, 273, 34, 157, 274, 151, 36, 159, 276, 153, 32, 38, 278, 272, 35, 158, 275, 152, 154, 156, 155</elem>
      <elem id="7">37, 43, 283, 277, 39, 45, 285, 279, 40, 163, 280, 157, 42, 165, 282, 159, 38, 44, 284, 278, 41, 164, 281, 158, 160, 162, 161</elem>
      <elem id="8">43, 49, 289, 283, 45, 51, 291, 285, 46, 169, 286, 163, 48, 171, 288, 165, 44, 50, 290, 284, 47, 170, 287, 164, 166, 168, 167</elem>
      <elem id="9">49, 55, 295, 289, 51, 57, 297, 291, 52, 175, 292, 169, 54, 177, 294, 171, 50, 56, 296, 290, 53, 176, 293, 170, 172, 174, 173</elem>
      <elem id="10">55, 61, 301, 295, 57, 63, 303, 297, 58, 181, 298, 175, 60, 183, 300, 177, 56, 62, 302, 296, 59, 182, 299, 176, 178, 180, 179</elem>
      <elem id="11">61, 67, 307, 301, 63, 69, 309, 303, 64, 187, 304, 181, 66, 189, 306, 183, 62, 68, 308, 302, 65, 188, 305, 182, 184, 186, 185</elem>
      <elem id="12">67, 73, 313, 307, 69, 75, 315, 309, 70, 193, 310, 187, 72, 195, 312, 189, 68, 74, 314, 308, 71, 194, 311, 188, 190, 192, 191</elem>
      <elem id="13">73, 79, 319, 313, 75, 81, 321, 315, 76, 199, 316, 193, 78, 201, 318, 195, 74, 80, 320, 314, 77, 200, 317, 194, 196, 198, 197</elem>
      <elem id="14">79, 85, 325, 319, 81, 87, 327, 321, 82, 205, 322, 199, 84, 207, 324, 201, 80, 86, 326, 320, 83, 206, 323, 200, 202, 204, 203</elem>
      <elem id="15">85, 91, 331, 325, 87, 93, 333, 327, 88, 211, 328, 205, 90, 213, 330, 207, 86, 92, 332, 326, 89, 212, 329, 206, 208, 210, 209</elem>
      <elem id="16">91, 97, 337, 331, 93, 99, 339, 333, 94, 217, 334, 211, 96, 219, 336, 213, 92, 98, 338, 332, 95, 218, 335, 212, 214, 216, 215</elem>
      <elem id="17">97, 103, 343, 337, 99, 105, 345, 339, 100, 223, 340, 217, 102, 225, 342, 219, 98, 104, 344, 338, 101, 224, 341, 218, 220, 222, 221</elem>
      <elem id="18">103, 109, 349, 343, 105, 111, 351, 345, 106, 229, 346, 223, 108, 231, 348, 225, 104, 110, 350, 344, 107, 230, 347, 224, 226, 228, 227</elem>
      <elem id="19">109, 115, 355, 349, 111, 117, 357, 351, 112, 235, 352, 229, 114, 237, 354, 231, 110, 116, 356, 350, 113, 236, 353, 230, 232, 234, 233</elem>
      <elem id="20">115, 1, 241, 355, 117, 3, 243, 357, 118, 121, 358, 235, 120, 123, 360, 237, 116, 2, 242, 356, 119, 122, 359, 236, 238, 240, 239</elem>
    </Elements>
    <NodeSet name="FixXs">
		31, 91, 271, 331
	</NodeSet>
    <NodeSet name="FixYs">
		1, 61, 241, 301
	</NodeSet>
    <Surface name="FixZs">
      <quad9 id="1">1, 3, 9, 7, 2, 6, 8, 4, 5</quad9>
      <quad9 id="2">241, 243, 249, 247, 242, 246, 248, 244, 245</quad9>
      <quad9 id="3">7, 9, 15, 13, 8, 12, 14, 10, 11</quad9>
      <quad9 id="4">247, 249, 255, 253, 248, 252, 254, 250, 251</quad9>
      <quad9 id="5">13, 15, 21, 19, 14, 18, 20, 16, 17</quad9>
      <quad9 id="6">253, 255, 261, 259, 254, 258, 260, 256, 257</quad9>
      <quad9 id="7">19, 21, 27, 25, 20, 24, 26, 22, 23</quad9>
      <quad9 id="8">259, 261, 267, 265, 260, 264, 266, 262, 263</quad9>
      <quad9 id="9">25, 27, 33, 31, 26, 30, 32, 28, 29</quad9>
      <quad9 id="10">265, 267, 273, 271, 266, 270, 272, 268, 269</quad9>
      <quad9 id="11">31, 33, 39, 37, 32, 36, 38, 34, 35</quad9>
      <quad9 id="12">271, 273, 279, 277, 272, 276, 278, 274, 275</quad9>
      <quad9 id="13">37, 39, 45, 43, 38, 42, 44, 40, 41</quad9>
      <quad9 id="14">277, 279, 285, 283, 278, 282, 284, 280, 281</quad9>
      <quad9 id="15">43, 45, 51, 49, 44, 48, 50, 46, 47</quad9>
      <quad9 id="16">283, 285, 291, 289, 284, 288, 290, 286, 287</quad9>
      <quad9 id="17">49, 51, 57, 55, 50, 54, 56, 52, 53</quad9>
      <quad9 id="18">289, 291, 297, 295, 290, 294, 296, 292, 293</quad9>
      <quad9 id="19">55, 57, 63, 61, 56, 60, 62, 58, 59</quad9>
      <quad9 id="20">295, 297, 303, 301, 296, 300, 302, 298, 299</quad9>
<!-- ... 20 like lines cut -->
    </Surface>
    <Surface name="PressureLoad1">
      <quad9 id="1">1, 241, 247, 7, 121, 244, 127, 4, 124</quad9>
      <quad9 id="2">7, 247, 253, 13, 127, 250, 133, 10, 130</quad9>
      <quad9 id="3">13, 253, 259, 19, 133, 256, 139, 16, 136</quad9>
      <quad9 id="4">19, 259, 265, 25, 139, 262, 145, 22, 142</quad9>
      <quad9 id="5">25, 265, 271, 31, 145, 268, 151, 28, 148</quad9>
      <quad9 id="6">31, 271, 277, 37, 151, 274, 157, 34, 154</quad9>
      <quad9 id="7">37, 277, 283, 43, 157, 280, 163, 40, 160</quad9>
      <quad9 id="8">43, 283, 289, 49, 163, 286, 169, 46, 166</quad9>
      <quad9 id="9">49, 289, 295, 55, 169, 292, 175, 52, 172</quad9>
      <quad9 id="10">55, 295, 301, 61, 175, 298, 181, 58, 178</quad9>
      <quad9 id="11">61, 301, 307, 67, 181, 304, 187, 64, 184</quad9>
      <quad9 id="12">67, 307, 313, 73, 187, 310, 193, 70, 190</quad9>
      <quad9 id="13">73, 313, 319, 79, 193, 316, 199, 76, 196</quad9>
      <quad9 id="14">79, 319, 325, 85, 199, 322, 205, 82, 202</quad9>
      <quad9 id="15">85, 325, 331, 91, 205, 328, 211, 88, 208</quad9>
      <quad9 id="16">91, 331, 337, 97, 211, 334, 217, 94, 214</quad9>
      <quad9 id="17">97, 337, 343, 103, 217, 340, 223, 100, 220</quad9>
      <quad9 id="18">103, 343, 349, 109, 223, 346, 229, 106, 226</quad9>
      <quad9 id="19">109, 349, 355, 115, 229, 352, 235, 112, 232</quad9>
      <quad9 id="20">115, 355, 241, 1, 235, 358, 121, 118, 238</quad9>
    </Surface>
  </Mesh>
  <MeshDomains>
    <SolidDomain name="Part1" mat="Material1">
    </SolidDomain>
  </MeshDomains>
  <Boundary>
    <bc name="FixXs" type="zero displacement" node_set="FixXs">
      <x_dof>1</x_dof>
      <y_dof>0</y_dof>
      <z_dof>0</z_dof>
    </bc>
    <bc name="FixYs" type="zero displacement" node_set="FixYs">
      <x_dof>0</x_dof>
      <y_dof>1</y_dof>
      <z_dof>0</z_dof>
    </bc>
    <bc name="FixZs" type="zero displacement" node_set="@surface:FixZs">
      <x_dof>0</x_dof>
      <y_dof>0</y_dof>
      <z_dof>1</z_dof>
    </bc>
  </Boundary>
  <Loads>
    <surface_load type="pressure" surface="PressureLoad1">
      <pressure lc="1">13.9868</pressure>
      <linear>0</linear>
      <symmetric_stiffness>0</symmetric_stiffness>
    </surface_load>
  </Loads>
  <LoadData>
    <load_controller id="1" type="loadcurve">
      <interpolate>LINEAR</interpolate>
      <points>
        <point>0,1.0</point>
        <point>1,1.0</point>
      </points>
    </load_controller>
    <load_controller id="2" type="loadcurve">
      <interpolate>LINEAR</interpolate>
      <points>
        <loadpoint>0,0</loadpoint>
        <loadpoint>1,0.0</loadpoint>
        <loadpoint>2,0.0</loadpoint>
        <loadpoint>11,0.36</loadpoint>
      </points>
    </load_controller>
  </LoadData>
  <Output>
    <plotfile type="vtk">
      <var type="displacement" />
      <var type="relative volume" />
      <var type="stress" />
      <var type="SPR stress" />
      <var type="SPR principal stress" />
      <var type="deformation gradient" />
      <var type="strain energy density" />
      <var type="acceleration" />
      <var type="velocity" />
    </plotfile>
  </Output>
</febio_spec>